&setup_nml
    days_per_year    = 365
    use_leap_years   = T
    year_init        = <YEAR_INIT>
    month_init       = <MONTH_INIT>
    day_init         = <DAY_INIT>
    sec_init         = 00000
    dt               = <DT>
    npt              = 999
    ndtd             = 1
    runtype          = <RUNTYPE>
    runid            = "unknown"
    ice_ic           = <ICE_IC>
    restart          = <RESTART>
    restart_ext      = F
    use_restart_time = <USE_RESTART_TIME>
    restart_format   = "nc"
    lcdf64           = F
    numin            = 21
    numax            = 89
    restart_dir      = "./RESTART/"
    restart_file     = "iced"
    pointer_file     = "./ice.restart_file"
    dumpfreq         = "d"
    dumpfreq_n       = 1000
    dump_last        = F
    bfbflag          = "off"
    diagfreq         = 6
    diag_type        = "file"
    diag_file        = "ice_diag.d"
    print_global     = T
    print_points     = T
    latpnt(1)        =  90.
    lonpnt(1)        =  0.
    latpnt(2)        = -65.
    lonpnt(2)        = -45.
    histfreq         = "h","x","x","x","x"
    histfreq_n       =  3 , 0 , 0 , 0 , 0
    hist_avg         = F
    history_dir      = "./history/"
    history_file     = "iceh"
    write_ic         = T
    incond_dir       = "./history/"
    incond_file      = "iceh_ic"
    version_name     = "CICE_6.0.2"
/

&grid_nml
    grid_format    = "nc"
    grid_type      = "tripole"
    grid_file      = "CICE_grid.nc"
    kmt_file       = "CICE_kmt.nc"
    kcatbound      = 0
    ncat           = 5
    nfsd           = 1
    nilyr          = 7
    nslyr          = 1
    nblyr          = 1
    nfsd           = 1
/

&tracer_nml
    tr_iage           = T
    restart_age       = F
    tr_FY             = T
    restart_FY        = F
    tr_lvl            = T
    restart_lvl       = F
    tr_pond_cesm      = F
    restart_pond_cesm = F
    tr_pond_topo      = F
    restart_pond_topo = F
    tr_pond_lvl       = T
    restart_pond_lvl  = F
    tr_aero           = F
    restart_aero      = F
    tr_fsd            = F
    restart_fsd       = F
/

&thermo_nml
    kitd              = 1
    ktherm            = 2
    conduct           = "MU71"
    a_rapid_mode      =  0.5e-3
    Rac_rapid_mode    =    10.0
    aspect_rapid_mode =     1.0
    dSdt_slow_mode    = -5.0e-8
    phi_c_slow_mode   =    0.05
    phi_i_mushy       =    0.85
/

&dynamics_nml
    kdyn            = 1
    ndte            = 120
    revised_evp     = F
    kevp_kernel     = 0
    brlx            = 300.0
    arlx            = 300.0
    ssh_stress      = "coupled"
    advection       = "remap"
    kstrength       = 1
    krdg_partic     = 1
    krdg_redist     = 1
    mu_rdg          = 3
    Cf              = 17.
    Ktens           = 0.
    e_ratio         = 2.
    coriolis        = "latitude"
    kridge          = 1
    ktransport      = 1
/

&shortwave_nml
    shortwave       = "dEdd"
    albedo_type     = "default"
    albicev         = 0.78
    albicei         = 0.36
    albsnowv        = 0.98
    albsnowi        = 0.70 
    ahmax           = 0.3
    R_ice           = 0.
    R_pnd           = 0.
    R_snw           = 1.5
    dT_mlt          = 1.5
    rsnw_mlt        = 1500.
    kalg            = 0.0
    sw_redist       = T
/

&ponds_nml
    hp1             = 0.01
    hs0             = 0.
    hs1             = 0.03
    dpscale         = 1.e-3
    frzpnd          = "hlid"
    rfracmin        = 0.15
    rfracmax        = 1.
    pndaspect       = 0.8
/

&forcing_nml
    formdrag        = F
    atmbndy         = "default"
    calc_strair     = T
    calc_Tsfc       = T
    highfreq        = F
    natmiter        = 5
    ustar_min       = 0.0005
    emissivity      = 0.95
    fbot_xfer_type  = "constant"
    update_ocn_f    = T
    l_mpond_fresh   = F
    tfrz_option     = "mushy"
    restart_coszen  = T
/

&domain_nml
    nprocs            = <NPROCS>
    nx_global         = <NX_GLOBAL>
    ny_global         = <NY_GLOBAL>
    block_size_x      = <BLOCK_SIZE_X>
    block_size_y      = <BLOCK_SIZE_Y>
    max_blocks        = -1
    processor_shape   = "slenderX2"
    distribution_type = "cartesian"
    distribution_wght = "latitude"
    ew_boundary_type  = "cyclic"
    ns_boundary_type  = "tripole"
    maskhalo_dyn      = F
    maskhalo_remap    = F
    maskhalo_bound    = F
/

&zbgc_nml
/

&icefields_nml
    f_tmask        = T
    f_blkmask      = T
    f_tarea        = T
    f_uarea        = T
    f_dxt          = F
    f_dyt          = F
    f_dxu          = F
    f_dyu          = F
    f_HTN          = F
    f_HTE          = F
    f_ANGLE        = T
    f_ANGLET       = T
    f_NCAT         = T
    f_VGRDi        = F
    f_VGRDs        = F
    f_VGRDb        = F
    f_VGRDa        = T
    f_bounds       = F
    f_hi           = "h"
    f_hs           = "h"
    f_uvel         = "h"
    f_vvel         = "h"
    f_aicen        = "h"
    f_vicen        = "h"
    f_vsnon        = "h"
    f_snowfracn    = "h"
    f_Tinz         = "h"
    f_Sinz         = "h"
    f_Tsnz         = "h"
    f_aice         = "x"
    f_Tsfc         = "x"
    f_sice         = "x"
    f_uatm         = "x"
    f_vatm         = "x"
    f_fswdn        = "x"
    f_flwdn        = "x"
    f_snowfrac     = "x"
    f_snow         = "x"
    f_snow_ai      = "x" 
    f_rain         = "x"
    f_rain_ai      = "x"
    f_sst          = "x"
    f_sss          = "x"
    f_uocn         = "x"
    f_vocn         = "x"
    f_frzmlt       = "x"
    f_fswfac       = "x"
    f_fswint_ai    = "x"
    f_fswabs       = "x"
    f_fswabs_ai    = "x"
    f_albsni       = "x"
    f_alvdr        = "x"
    f_alidr        = "x"
    f_alvdf        = "x"
    f_alidf        = "x"
    f_alvdr_ai     = "x"
    f_alidr_ai     = "x"
    f_alvdf_ai     = "x"
    f_alidf_ai     = "x"
    f_albice       = "x"
    f_albsno       = "x"
    f_albpnd       = "x"
    f_coszen       = "x"
    f_flat         = "x"
    f_flat_ai      = "x"
    f_fsens        = "x"
    f_fsens_ai     = "x"
    f_fswup        = "x"
    f_flwup        = "x"
    f_flwup_ai     = "x"
    f_evap         = "x"
    f_evap_ai      = "x"
    f_Tair         = "x"
    f_Tref         = "x"
    f_Qref         = "x"
    f_congel       = "x"
    f_frazil       = "x"
    f_snoice       = "x"
    f_dsnow        = "x"
    f_melts        = "x"
    f_meltt        = "x"
    f_meltb        = "x"
    f_meltl        = "x"
    f_fresh        = "x"
    f_fresh_ai     = "x"
    f_fsalt        = "x"
    f_fsalt_ai     = "x"
    f_fbot         = "x"
    f_fhocn        = "x"
    f_fhocn_ai     = "x"
    f_fswthru      = "x"
    f_fswthru_ai   = "x"
    f_fsurf_ai     = "x"
    f_fcondtop_ai  = "x"
    f_fmeltt_ai    = "x"
    f_strairx      = "x"
    f_strairy      = "x"
    f_strtltx      = "x"
    f_strtlty      = "x"
    f_strcorx      = "x"
    f_strcory      = "x"
    f_strocnx      = "x"
    f_strocny      = "x"
    f_strintx      = "x"
    f_strinty      = "x"
    f_taubx        = "x"
    f_tauby        = "x"
    f_strength     = "x"
    f_divu         = "x"
    f_shear        = "x"
    f_sig1         = "x"
    f_sig2         = "x"
    f_sigP         = "x"
    f_dvidtt       = "x"
    f_dvidtd       = "x"
    f_daidtt       = "x"
    f_daidtd       = "x"
    f_dagedtt      = "x"
    f_dagedtd      = "x"
    f_mlt_onset    = "x"
    f_frz_onset    = "x"
    f_hisnap       = "x"
    f_aisnap       = "x"
    f_trsig        = "x"
    f_icepresent   = "x"
    f_iage         = "x"
    f_FY           = "x"
    f_keffn_top    = "x"
    f_fsurfn_ai    = "x"
    f_fcondtopn_ai = "x"
    f_fmelttn_ai   = "x"
    f_flatn_ai     = "x"
    f_fsensn_ai    = "x"
/

&icefields_mechred_nml
    f_alvl         = "x"
    f_vlvl         = "x"
    f_ardg         = "x"
    f_vrdg         = "x"
    f_dardg1dt     = "x"
    f_dardg2dt     = "x"
    f_dvirdgdt     = "x"
    f_opening      = "x"
    f_ardgn        = "x"
    f_vrdgn        = "x"
    f_dardg1ndt    = "x"
    f_dardg2ndt    = "x"
    f_dvirdgndt    = "x"
    f_krdgn        = "x"
    f_aparticn     = "x"
    f_aredistn     = "x"
    f_vredistn     = "x"
    f_araftn       = "x"
    f_vraftn       = "x"
/

&icefields_pond_nml
    f_apondn       = "x"
    f_apeffn       = "x"
    f_hpondn       = "x"
    f_apond        = "x"
    f_hpond        = "x"
    f_ipond        = "x"
    f_apeff        = "x"
    f_apond_ai     = "x"
    f_hpond_ai     = "x"
    f_ipond_ai     = "x"
    f_apeff_ai     = "x"
/

&icefields_drag_nml
    f_drag         = "x"
    f_Cdn_atm      = "x"
    f_Cdn_ocn      = "x"
/

&icefields_bgc_nml
/
